/*--------------------------------*- C++ -*----------------------------------*\
  =========                 |
  \\      /  F ield         | OpenFOAM: The Open Source CFD Toolbox
   \\    /   O peration     | Website:  https://openfoam.org
    \\  /    A nd           | Version:  8
     \\/     M anipulation  |
\*---------------------------------------------------------------------------*/
FoamFile
{
    version     2.0;
    format      ascii;
    class       dictionary;
    location    "system";
    object      setFieldsDict;
}
// * * * * * * * * * * * * * * * * * * * * * * * * * * * * * * * * * * * * * //

defaultFieldValues
(
);

regions
(
    sphereToCell
    {
        centre (0 0 0);
        //radius 0.010001;
		radius 0.025001;
        fieldValues
        (
            volScalarFieldValue porosityF 0.4752
            volScalarFieldValue porosityF0 0.4752
            //volScalarFieldValue T   378
			volScalarFieldValue T   302
			volVectorFieldValue U (0 0 0)
			volTensorFieldValue Df (1.2e11 0 0 0 1.2e11 0 0 0 1.2e11)
        );
    }
);


// ************************************************************************* //
