/*--------------------------------*- C++ -*----------------------------------*\
  =========                 |
  \\      /  F ield         | OpenFOAM: The Open Source CFD Toolbox
   \\    /   O peration     | Website:  https://openfoam.org
    \\  /    A nd           | Version:  8
     \\/     M anipulation  |
\*---------------------------------------------------------------------------*/
FoamFile
{
    version     2.1;
    format      binary;
    class       dictionary;
    location    "system";
    object      controlDict;
}
// * * * * * * * * * * * * * * * * * * * * * * * * * * * * * * * * * * * * * //

application     porousGasificationFoam;

startFrom       latestTime;

startTime       0;

stopAt          endTime;

endTime         2;

deltaT          0.0001;

writeControl    runTime;

writeInterval   .1;

purgeWrite      0;

writeFormat     binary;

writePrecision  10;

writeCompression uncompressed;

timeFormat      general;

timePrecision   6;

runTimeModifiable yes;

adjustTimeStep  yes;

//maxCo       0.5;

//maxDeltaT   0.05;

//maxDi   5000;

functions
{
    #includeFunc  singleGraph
	#includeFunc  writeObjects(thermo:mu,rho)
	#includeFunc vorticity
	#includeFunc fieldAverage(U, p, vorticity, prime2Mean = yes)

}
// ************************************************************************* //
