/*--------------------------------*- C++ -*----------------------------------*\
  =========                 |
  \\      /  F ield         | OpenFOAM: The Open Source CFD Toolbox
   \\    /   O peration     | Website:  https://openfoam.org
    \\  /    A nd           | Version:  8
     \\/     M anipulation  |
\*---------------------------------------------------------------------------*/
FoamFile
{
    version     2.0;
    format      ascii;
    class       dictionary;
    location    "system";
    object      fvSchemes;
}
// * * * * * * * * * * * * * * * * * * * * * * * * * * * * * * * * * * * * * //

ddtSchemes
{
    //default         backward;
	default         localEuler;

}

gradSchemes
{
    default         Gauss linear; 
}

divSchemes
{
    default         none;

    div(phi,U)      Gauss linearUpwindV default;
    div(phi,Yi)     Gauss limitedLinear01   1;
    div(phi,h)      Gauss limitedLinear     1;
    div(phi,K)      Gauss linearUpwind  default;
    div(((rho*nuEff)*dev2(T(grad(U))))) Gauss linear;
	div(phi,k)      Gauss limitedLinear 1;
    div(phi,epsilon) Gauss limitedLinear 1;
	div(phi,R)      Gauss limitedLinear 1;
    div(R)          Gauss linear;
    div(phi,nuTilda) Gauss limitedLinear 1;
}

laplacianSchemes
{
    default         Gauss linear orthogonal;
}

interpolationSchemes
{
    default         linear;
}

snGradSchemes
{
    default         orthogonal;
}

wallDist
{
    method meshWave;
}

// ************************************************************************* //
